/*--------------------------------*- C++ -*----------------------------------*\
| =========                 |                                                 |
| \\      /  F ield         | OpenFOAM: The Open Source CFD Toolbox           |
|  \\    /   O peration     | Version:  2.4.0                                 |
|   \\  /    A nd           | Web:      www.OpenFOAM.org                      |
|    \\/     M anipulation  |                                                 |
\*---------------------------------------------------------------------------*/
FoamFile
{
    version     2.0;
    format      ascii;
    class       dictionary;
    location    "system";
    object      controlDict;
}
// * * * * * * * * * * * * * * * * * * * * * * * * * * * * * * * * * * * * * //
#include "../boundaryConditions"

application     simpleFoam;

startFrom       latestTime;

startTime       0;

stopAt          endTime;

endTime         1000;

deltaT          1;

writeControl    timeStep;

writeInterval   250;

purgeWrite      0;

writeFormat     binary;

writePrecision  6;

writeCompression off;

timeFormat      general;

timePrecision   6;

runTimeModifiable true;

functions
(
	forceCoeffs
	{
		type forceCoeffs;
		functionObjectLibs ("libforces.so");
		patches (base bodytube nosecone); //change to your patch name
		pName p;
		uName U;
		rhoName rhoInf;
		rhoInf 1.225;
		CofR (0 0 0);
		liftDir (0 1 0);
		dragDir (0 0 -1);
		pitchAxis (1 0 0);
		magUInf $magUInf;
		lRef 0.067;
		Aref 0.0036317;
                outputControl timeStep;
	}
);
// ************************************************************************* //
