/*--------------------------------*- C++ -*----------------------------------*\
| =========                 |                                                 |
| \\      /  F ield         | OpenFOAM: The Open Source CFD Toolbox           |
|  \\    /   O peration     | Version:  2.4.0                                 |
|   \\  /    A nd           | Web:      www.OpenFOAM.org                      |
|    \\/     M anipulation  |                                                 |
\*---------------------------------------------------------------------------*/
FoamFile
{
    version     2.0;
    format      ascii;
    class       volScalarField;
    object      nut;
}
// * * * * * * * * * * * * * * * * * * * * * * * * * * * * * * * * * * * * * //

dimensions      [0 2 -1 0 0 0 0];

internalField   uniform 0.14;

boundaryField
{
    farField
    {
        type            freestream;
        freestreamValue uniform 0.14;
    }

    bodytube
    {
        type            nutUSpaldingWallFunction;
        value           uniform 0;
    }

    nosecone
    {
        type            nutUSpaldingWallFunction;
        value           uniform 0;
    }
    base
    {
        type            nutUSpaldingWallFunction;
        value           uniform 0;
    }
}

// ************************************************************************* //
